n11/case_lf_new.m
function mpc = case_lf_new
%CASE_LF_NEW

%% MATPOWER Case Format : Version 2
mpc.version = '2';

%%-----  Power Flow Data  -----%%
%% system MVA base
mpc.baseMVA = 1000;

%% bus data
%	bus_i	type	Pd	Qd	Gs	Bs	area	Vm	Va	baseKV	zone	Vmax	Vmin
mpc.bus = [
	1	1	0	0	0	0	1	1	0	37	1	1.1	0.9;
	2	1	0	0	0	0	1	1	0	37	1	1.1	0.9;
	3	1	0	0	0	0	1	1	0	37	1	1.1	0.9;
	4	1	0	0	0	0	1	1	0	37	1	1.1	0.9;
	5	1	0	0	0	0	1	1	0	37	1	1.1	0.9;
	6	1	0	0	0	0	1	1	0	37	1	1.1	0.9;
	7	1	0	0	0	0	1	1	0	37	1	1.1	0.9;
	8	1	0	0	0	0	1	1	0	37	1	1.1	0.9;
	9	1	0	0	0	0	1	1	0	230	1	1.1	0.9;
	10	2	0	0	0	0	1	1	0	230	1	1.1	0.9;
	11	3	0	0	0	0	1	1	0	165	1	1.1	0.9;
];

%% generator data
%	bus	Pg	Qg	Qmax	Qmin	Vg	mBase	status	Pmax	Pmin	Pc1	Pc2	Qc1min	Qc1max	Qc2min	Qc2max	ramp_agc	ramp_10	ramp_30	ramp_q	apf
mpc.gen = [
	1	200	0	130	-130	1	1000	1	200	0	0	0	0	0	0	0	0	0	0	0	0;
	2	100	0	65	-65	1	1000	1	100	0	0	0	0	0	0	0	0	0	0	0	0;
	3	200	0	130	-130	1	1000	1	200	0	0	0	0	0	0	0	0	0	0	0	0;
	4	100	0	65	-65	1	1000	1	100	0	0	0	0	0	0	0	0	0	0	0	0;
	5	100	0	65	-65	1	1000	1	100	0	0	0	0	0	0	0	0	0	0	0	0;
	6	100	0	65	-65	1	1000	1	100	0	0	0	0	0	0	0	0	0	0	0	0;
	7	100	0	65	-65	1	1000	1	100	0	0	0	0	0	0	0	0	0	0	0	0;
	8	100	0	65	-65	1	1000	1	100	0	0	0	0	0	0	0	0	0	0	0	0;
	9	0	0	1000	-1000	1	1000	1	1000	0	0	0	0	0	0	0	0	0	0	0	0;
	10	0	0	1000	-1000	1	1000	1	1100	0	0	0	0	0	0	0	0	0	0	0	0;
	11	0	0	1000	-1000	1	1000	1	0	0	0	0	0	0	0	0	0	0	0	0	0;
];

%% branch data
%	fbus	tbus	r	x	b	rateA	rateB	rateC	ratio	angle	status	angmin	angmax
mpc.branch = [
	1	9	0.00239938838	1.1027933	1.89651832e-06	250	250	250	1	0	1	-360	360;
	2	9	0.00639836901	2.22639593	4.94139149e-06	250	250	250	1	0	1	-360	360;
	3	9	0.00639836901	1.14911546	5.05738218e-06	150	150	150	1	0	1	-360	360;
	4	9	0.00266598709	2.18183164	2.05891312e-06	300	300	300	1	0	1	-360	360;
	5	9	0.00639836901	2.22639593	4.94139149e-06	150	150	150	1	0	1	-360	360;
	6	9	0.00266598709	2.18183164	2.05891312e-06	250	250	250	1	0	1	-360	360;
	7	9	0.00266598709	2.18183164	2.05891312e-06	250	250	250	1	0	1	-360	360;
	8	9	0.00426557934	2.20093062	3.29426099e-06	250	250	250	1	0	1	-360	360;
	9	10	0.0706486578	0.279595807	7.55407534e-06	250	250	250	0	0	1	-360	360;
	10	11	0	0.0987313515	0	250	250	250	0	0	1	-360	360;
];

%%-----  OPF Data  -----%%
%% generator cost data
%	1	startup	shutdown	n	x1	y1	...	xn	yn
%	2	startup	shutdown	n	c(n-1)	...	c0
mpc.gencost = [
	2	1500	0	3	0.11	5	150;
	2	2000	0	3	0.085	1.2	600;
	2	3000	0	3	0.1225	1	335;
];
